Circuit: * /Users/league/Desktop/Level-2/Lesson 7/Photosensor.asc

.OP point found by inspection.
.step rp=5000
.step rp=10000
.step rp=15000
.step rp=20000

Date: Sat Jul 21 11:29:11 2018
Total elapsed time: 0.453 seconds.

tnom = 27
temp = 27
method = modified trap
totiter = 2143
traniter = 2143
tranpoints = 1067
accept = 1061
rejected = 6
matrix size = 6
fillins = 0
solver = Normal
Matrix Compiler1:      14 opcodes  0.1/0.0/[0.0]
Matrix Compiler2: off

